ELEMENTS  H  O  C  N  AR  END                                                   
SPECIES
H2      CH4     C2H2    O2      H2O     H2O2    CO      CO2     CH2O    C       
H       CH      CH2     CH2(S)  CH3     C2H3    H2CCCH  O       OH      HO2     
HCO     HCCO    N2      AR      CN      HCN     N       NH      NO      HNO     
NH2     H2NO    NCO     N2O     NO2     N2H2    HOCN    H2CN    NNH     NH3     
N2H3    C2N2    HNCO    
END
THERMO ALL
   300.000  1000.000  5000.000
H2                      H   2    0    0    0G    300.00   5000.00 1000.00    0 1
 2.99142300E+00 7.00064400E-04-5.63382900E-08-9.23157800E-12 1.58275200E-15    2
-8.35034000E+02-1.35511000E+00 3.29812400E+00 8.24944200E-04-8.14301500E-07    3
-9.47543400E-11 4.13487200E-13-1.01252100E+03-3.29409400E+00                   4
CH4                     H   4C   1    0    0G    300.00   5000.00 1000.00    0 1
 1.68347900E+00 1.02372400E-02-3.87512900E-06 6.78558500E-10-4.50342300E-14    2
-1.00807900E+04 9.62339500E+00 7.78741500E-01 1.74766800E-02-2.78340900E-05    3
 3.04970800E-08-1.22393100E-11-9.82522900E+03 1.37221900E+01                   4
C2H2                    H   2C   2    0    0G    300.00   5000.00 1000.00    0 1
 4.43677000E+00 5.37603900E-03-1.91281700E-06 3.28637900E-10-2.15671000E-14    2
 2.56676600E+04-2.80033800E+00 2.01356200E+00 1.51904500E-02-1.61631900E-05    3
 9.07899200E-09-1.91274600E-12 2.61244400E+04 8.80537800E+00                   4
O2                      O   2    0    0    0G    300.00   5000.00 1000.00    0 1
 3.69757800E+00 6.13519700E-04-1.25884200E-07 1.77528100E-11-1.13643500E-15    2
-1.23393000E+03 3.18916600E+00 3.21293600E+00 1.12748600E-03-5.75615000E-07    3
 1.31387700E-09-8.76855400E-13-1.00524900E+03 6.03473800E+00                   4
H2O                     H   2O   1    0    0G    300.00   5000.00 1000.00    0 1
 2.67214600E+00 3.05629300E-03-8.73026000E-07 1.20099600E-10-6.39161800E-15    2
-2.98992100E+04 6.86281700E+00 3.38684200E+00 3.47498200E-03-6.35469600E-06    3
 6.96858100E-09-2.50658800E-12-3.02081100E+04 2.59023300E+00                   4
H2O2                    H   2O   2    0    0G    300.00   5000.00 1000.00    0 1
 4.57316700E+00 4.33613600E-03-1.47468900E-06 2.34890400E-10-1.43165400E-14    2
-1.80069600E+04 5.01137000E-01 3.38875400E+00 6.56922600E-03-1.48501300E-07    3
-4.62580600E-09 2.47151500E-12-1.76631500E+04 6.78536300E+00                   4
CO                      O   1C   1    0    0G    300.00   5000.00 1000.00    0 1
 3.02507800E+00 1.44268900E-03-5.63082800E-07 1.01858100E-10-6.91095200E-15    2
-1.42683500E+04 6.10821800E+00 3.26245200E+00 1.51194100E-03-3.88175500E-06    3
 5.58194400E-09-2.47495100E-12-1.43105400E+04 4.84889700E+00                   4
CO2                     O   2C   1    0    0G    300.00   5000.00 1000.00    0 1
 4.45362300E+00 3.14016900E-03-1.27841100E-06 2.39399700E-10-1.66903300E-14    2
-4.89669600E+04-9.55395900E-01 2.27572500E+00 9.92207200E-03-1.04091100E-05    3
 6.86668700E-09-2.11728000E-12-4.83731400E+04 1.01884900E+01                   4
CH2O                    H   2O   1C   1    0G    300.00   5000.00 1000.00    0 1
 2.99560600E+00 6.68132100E-03-2.62895500E-06 4.73715300E-10-3.21251700E-14    2
-1.53203700E+04 6.91257200E+00 1.65273100E+00 1.26314400E-02-1.88816800E-05    3
 2.05003100E-08-8.41323700E-12-1.48654000E+04 1.37848200E+01                   4
C                       C   1    0    0    0G    300.00   5000.00 1000.00    0 1
 2.60208700E+00-1.78708100E-04 9.08704100E-08-1.14993300E-11 3.31084400E-16    2
 8.54215400E+04 4.19517700E+00 2.49858500E+00 8.08577700E-05-2.69769700E-07    3
 3.04072900E-10-1.10665200E-13 8.54587800E+04 4.75345900E+00                   4
H                       H   1    0    0    0G    300.00   5000.00 1000.00    0 1
 2.50000000E+00 0.00000000E+00 0.00000000E+00 0.00000000E+00 0.00000000E+00    2
 2.54716300E+04-4.60117600E-01 2.50000000E+00 0.00000000E+00 0.00000000E+00    3
 0.00000000E+00 0.00000000E+00 2.54716300E+04-4.60117600E-01                   4
CH                      H   1C   1    0    0G    300.00   5000.00 1000.00    0 1
 2.19622300E+00 2.34038100E-03-7.05820100E-07 9.00758200E-11-3.85504000E-15    2
 7.08672300E+04 9.17837300E+00 3.20020200E+00 2.07287600E-03-5.13443100E-06    3
 5.73389000E-09-1.95553300E-12 7.04525900E+04 3.33158800E+00                   4
CH2                     H   2C   1    0    0G    250.00   4000.00 1000.00    0 1
 3.63640800E+00 1.93305700E-03-1.68701600E-07-1.00989900E-10 1.80825600E-14    2
 4.53413400E+04 2.15656100E+00 3.76223700E+00 1.15981900E-03 2.48958500E-07    3
 8.80083600E-10-7.33243500E-13 4.53679100E+04 1.71257800E+00                   4
CH2(S)                  H   2C   1    0    0G    300.00   5000.00 1360.00    0 1
 3.09732461E+00 2.80331155E-03-7.10881104E-07 8.36924323E-11-3.81270428E-15    2
 4.95090024E+04 4.31246006E+00 3.32929383E+00 2.26625413E-03-2.38920714E-07    3
-1.04565889E-10 2.51400070E-14 4.94285310E+04 3.06576550E+00                   4
CH3                     H   3C   1    0    0G    300.00   5000.00 1000.00    0 1
 2.84405200E+00 6.13797400E-03-2.23034500E-06 3.78516100E-10-2.45215900E-14    2
 1.64378100E+04 5.45269700E+00 2.43044300E+00 1.11241000E-02-1.68022000E-05    3
 1.62182900E-08-5.86495300E-12 1.64237800E+04 6.78979400E+00                   4
C2H3                    H   3C   2    0    0G    300.00   5000.00 1000.00    0 1
 5.93346800E+00 4.01774600E-03-3.96674000E-07-1.44126700E-10 2.37864400E-14    2
 3.18543500E+04-8.53031300E+00 2.45927600E+00 7.37147600E-03 2.10987300E-06    3
-1.32164200E-09-1.18478400E-12 3.33522500E+04 1.15562000E+01                   4
H2CCCH                  H   3C   3    0    0G    300.00   4000.00 1000.00    0 1
 8.83104700E+00 4.35719500E-03-4.10906700E-07-2.36872300E-10 4.37652000E-14    2
 3.84742000E+04-2.17791900E+01 4.75420000E+00 1.10802800E-02 2.79332300E-07    3
-5.47921200E-09 1.94962900E-12 3.98888300E+04 5.85454900E-01                   4
O                       O   1    0    0    0G    300.00   5000.00 1000.00    0 1
 2.54206000E+00-2.75506200E-05-3.10280300E-09 4.55106700E-12-4.36805200E-16    2
 2.92308000E+04 4.92030800E+00 2.94642900E+00-1.63816600E-03 2.42103200E-06    3
-1.60284300E-09 3.89069600E-13 2.91476400E+04 2.96399500E+00                   4
OH                      H   1O   1    0    0G    300.00   5000.00 1000.00    0 1
 2.88273000E+00 1.01397400E-03-2.27687700E-07 2.17468400E-11-5.12630500E-16    2
 3.88688800E+03 5.59571200E+00 3.63726600E+00 1.85091000E-04-1.67616500E-06    3
 2.38720300E-09-8.43144200E-13 3.60678200E+03 1.35886000E+00                   4
HO2                     H   1O   2    0    0G    300.00   5000.00 1000.00    0 1
 4.07219100E+00 2.13129600E-03-5.30814500E-07 6.11226900E-11-2.84116500E-15    2
-1.57972700E+02 3.47602900E+00 2.97996300E+00 4.99669700E-03-3.79099700E-06    3
 2.35419200E-09-8.08902400E-13 1.76227400E+02 9.22272400E+00                   4
HCO                     H   1O   1C   1    0G    300.00   5000.00 1000.00    0 1
 3.55727100E+00 3.34557300E-03-1.33500600E-06 2.47057300E-10-1.71385100E-14    2
 3.91632400E+03 5.55229900E+00 2.89833000E+00 6.19914700E-03-9.62308400E-06    3
 1.08982500E-08-4.57488500E-12 4.15992200E+03 8.98361400E+00                   4
HCCO                    H   1O   1C   2    0G    300.00   4000.00 1000.00    0 1
 6.75807300E+00 2.00040000E-03-2.02760700E-07-1.04113200E-10 1.96516500E-14    2
 1.90151300E+04-9.07126200E+00 5.04796500E+00 4.45347800E-03 2.26828300E-07    3
-1.48209500E-09 2.25074200E-13 1.96589200E+04 4.81843900E-01                   4
N2                      N   2    0    0    0G    300.00   5000.00 1000.00    0 1
 2.92664000E+00 1.48797700E-03-5.68476100E-07 1.00970400E-10-6.75335100E-15    2
-9.22797700E+02 5.98052800E+00 3.29867700E+00 1.40824000E-03-3.96322200E-06    3
 5.64151500E-09-2.44485500E-12-1.02090000E+03 3.95037200E+00                   4
AR                      AR  1    0    0    0G    300.00   5000.00 1000.00    0 1
 2.50000000E+00 0.00000000E+00 0.00000000E+00 0.00000000E+00 0.00000000E+00    2
-7.45375000E+02 4.36600100E+00 2.50000000E+00 0.00000000E+00 0.00000000E+00    3
 0.00000000E+00 0.00000000E+00-7.45375000E+02 4.36600100E+00                   4
CN                      C   1N   1    0    0G    300.00   5000.00 1000.00    0 1
 3.72012000E+00 1.51835100E-04 1.98738100E-07-3.79837100E-11 1.32823000E-15    2
 5.11162600E+04 2.88859700E+00 3.66320400E+00-1.15652900E-03 2.16340900E-06    3
 1.85420800E-10-8.21469500E-13 5.12811800E+04 3.73901600E+00                   4
HCN                     H   1C   1N   1    0G    300.00   4000.00 1000.00    0 1
 3.42645700E+00 3.92419000E-03-1.60113800E-06 3.16196600E-10-2.43285000E-14    2
 1.48555200E+04 3.60779500E+00 2.41778700E+00 9.03185600E-03-1.10772700E-05    3
 7.98014100E-09-2.31114100E-12 1.50104400E+04 8.22289100E+00                   4
N                       N   1    0    0    0G    300.00   5000.00 1000.00    0 1
 2.45026800E+00 1.06614600E-04-7.46533700E-08 1.87965200E-11-1.02598400E-15    2
 5.61160400E+04 4.44875800E+00 2.50307100E+00-2.18001800E-05 5.42052900E-08    3
-5.64756000E-11 2.09990400E-14 5.60989000E+04 4.16756600E+00                   4
NH                      H   1N   1    0    0G    300.00   5000.00 1000.00    0 1
 2.76024900E+00 1.37534600E-03-4.45191400E-07 7.69279200E-11-5.01759200E-15    2
 4.20782800E+04 5.85719900E+00 3.33975800E+00 1.25300900E-03-3.49164600E-06    3
 4.21881200E-09-1.55761800E-12 4.18504700E+04 2.50718100E+00                   4
NO                      O   1N   1    0    0G    300.00   5000.00 1000.00    0 1
 3.24543500E+00 1.26913800E-03-5.01589000E-07 9.16928300E-11-6.27541900E-15    2
 9.80084000E+03 6.41729400E+00 3.37654200E+00 1.25306300E-03-3.30275100E-06    3
 5.21781000E-09-2.44626300E-12 9.81796100E+03 5.82959000E+00                   4
HNO                     H   1O   1N   1    0G    300.00   5000.00 1000.00    0 1
 3.61514400E+00 3.21248600E-03-1.26033700E-06 2.26729800E-10-1.53623600E-14    2
 1.06619100E+04 4.81026400E+00 2.78440300E+00 6.60964600E-03-9.30022300E-06    3
 9.43798000E-09-3.75314600E-12 1.09187800E+04 9.03562900E+00                   4
NH2                     H   2N   1    0    0G    300.00   5000.00 1000.00    0 1
 2.96131100E+00 2.93269900E-03-9.06360000E-07 1.61725700E-10-1.20420000E-14    2
 2.19197700E+04 5.77787800E+00 3.43249300E+00 3.29954000E-03-6.61360000E-06    3
 8.59094700E-09-3.57204700E-12 2.17722800E+04 3.09011100E+00                   4
H2NO                    H   2O   1N   1    0G    300.00   4000.00 1500.00    0 1
 5.67334600E+00 2.29883700E-03-1.77444600E-07-1.10348200E-10 1.85976200E-14    2
 5.56932500E+03-6.15354000E+00 2.53059000E+00 8.59603500E-03-5.47103000E-06    3
 2.27624900E-09-4.64807300E-13 6.86803000E+03 1.12665100E+01                   4
NCO                     O   1C   1N   1    0G    300.00   4000.00 1400.00    0 1
 6.07234600E+00 9.22782900E-04-9.84557400E-08-4.76412300E-11 9.09044500E-15    2
 1.35982000E+04-8.50729300E+00 3.35959300E+00 5.39323900E-03-8.14458500E-07    3
-1.91286800E-09 7.83679400E-13 1.46280900E+04 6.54969400E+00                   4
N2O                     O   1N   2    0    0G    300.00   5000.00 1000.00    0 1
 4.71897700E+00 2.87371400E-03-1.19749600E-06 2.25055200E-10-1.57533700E-14    2
 8.16581100E+03-1.65725000E+00 2.54305800E+00 9.49219300E-03-9.79277500E-06    3
 6.26384500E-09-1.90182600E-12 8.76510000E+03 9.51122200E+00                   4
NO2                     O   2N   1    0    0G    300.00   5000.00 1000.00    0 1
 4.68285900E+00 2.46242900E-03-1.04225900E-06 1.97690200E-10-1.39171700E-14    2
 2.26129200E+03 9.88598500E-01 2.67060000E+00 7.83850100E-03-8.06386500E-06    3
 6.16171500E-09-2.32015000E-12 2.89629100E+03 1.16120700E+01                   4
N2H2                    H   2N   2    0    0G    300.00   5000.00 1000.00    0 1
 3.37118500E+00 6.03996800E-03-2.30385400E-06 4.06278900E-10-2.71314400E-14    2
 2.41817200E+04 4.98058500E+00 1.61799900E+00 1.30631200E-02-1.71571200E-05    3
 1.60560800E-08-6.09363900E-12 2.46752600E+04 1.37946700E+01                   4
HOCN                    H   1O   1C   1N   1G    300.00   4000.00 1400.00    0 1
 6.02211200E+00 1.92953000E-03-1.45502900E-07-1.04581100E-10 1.79481400E-14    2
-4.04032100E+03-5.86643300E+00 3.78942400E+00 5.38798100E-03-6.51827000E-07    3
-1.42016400E-09 5.36796900E-13-3.13533500E+03 6.66705200E+00                   4
H2CN                    H   2C   1N   1    0G    300.00   4000.00 1000.00    0 1
 5.20970300E+00 2.96929100E-03-2.85558900E-07-1.63555000E-10 3.04325900E-14    2
 2.76771100E+04-4.44447800E+00 2.85166100E+00 5.69523300E-03 1.07114000E-06    3
-1.62261200E-09-2.35110800E-13 2.86378200E+04 8.99275100E+00                   4
NNH                     H   1N   2    0    0G    250.00   4000.00 1000.00    0 1
 4.41534200E+00 1.61438800E-03-1.63289400E-07-8.55984600E-11 1.61479100E-14    2
 2.78802900E+04 9.04288800E-01 3.50134400E+00 2.05358700E-03 7.17041000E-07    3
 4.92134800E-10-9.67117000E-13 2.83334700E+04 6.39183700E+00                   4
NH3                     H   3N   1    0    0G    300.00   5000.00 1000.00    0 1
 2.46190400E+00 6.05916600E-03-2.00497700E-06 3.13600300E-10-1.93831700E-14    2
-6.49327000E+03 7.47209700E+00 2.20435200E+00 1.01147600E-02-1.46526500E-05    3
 1.44723500E-08-5.32850900E-12-6.52548800E+03 8.12713800E+00                   4
N2H3                    H   3N   2    0    0G    300.00   5000.00 1000.00    0 1
 4.44184600E+00 7.21427100E-03-2.49568400E-06 3.92056500E-10-2.29895000E-14    2
 1.66422100E+04-4.27520500E-01 3.17420400E+00 4.71590700E-03 1.33486700E-05    3
-1.91968500E-08 7.48756400E-12 1.72727000E+04 7.55722400E+00                   4
C2N2                    C   2N   2    0    0G    300.00   5000.00 1000.00    0 1
 6.54800300E+00 3.98470700E-03-1.63421600E-06 3.03859700E-10-2.11106900E-14    2
 3.49071600E+04-9.73579000E+00 4.26545900E+00 1.19225700E-02-1.34201400E-05    3
 9.19229700E-09-2.77894200E-12 3.54788800E+04 1.71321200E+00                   4
HNCO                    H   1O   1C   1N   1G    300.00   4000.00 1400.00    0 1
 6.54530700E+00 1.96576000E-03-1.56266400E-07-1.07431800E-10 1.87468000E-14    2
-1.66477300E+04-1.00388000E+01 3.85846700E+00 6.39034200E-03-9.01662800E-07    3
-1.89822400E-09 7.65138000E-13-1.56234300E+04 4.88249300E+00                   4
END
REACTIONS   MOLES  KELVINS                                                      
!
!     1
H2+CN =  HCN+H                                     1.930E+04   2.8700     820.06
!
!     2
CH4+N =  NH+CH3                                    1.000E+13   0.0000   12076.02
!
!     3
CH4+CN =  HCN+CH3                                  9.030E+04   2.6400    -149.99
!
!     4
O2+N =  NO+O                                       9.030E+09   1.0000    3270.27
!
!     5
O2+NH =  HNO+O                                     3.910E+13   0.0000    9000.36
!
!     6
O2+NH =  NO+OH                                     7.589E+10   0.0000     769.79
!
!     7
O2+NH2 =  HNO+OH                                   1.510E+12  -0.3900   18166.95
!
!     8
O2+NH2 =  H2NO+O                                   1.100E+18  -1.3400   16908.83
!
!     9
O2+CN =  NCO+O                                     7.230E+12   0.0000    -210.01
!
!    10
O2+NCO =  NO+CO2                                   1.720E+07   0.0000    -369.26
!
!    11
CO+N2O =  CO2+N2                                   9.770E+10   0.0000    8780.37
!
!    12
CO2+N =  NO+CO                                     1.900E+11   0.0000    1710.01
!
!    13
N2+CH =  HCN+N                                     1.570E+12   0.0000    9030.31
!
!    14
N2+CH2 =  HCN+NH                                   1.000E+13   0.0000   37240.80
!
!    15
NO+N2O =  N2+NO2                                   1.000E+14   0.0000   25000.00
!
!    16
NO+N2H2 =  N2O+NH2                                 3.000E+12   0.0000       0.00
!
!    17
NO+C =  CN+O                                       1.930E+13   0.0000       0.00
!
!    18
NO+C =  CO+N                                       2.890E+13   0.0000       0.00
!
!    19
NO+H => N+OH                                       2.170E+14   0.0000   24909.79
!
!    20
N+OH => NO+H                                       2.830E+13   0.0000       0.00
!
!    21
NO+CH =  CO+NH                                     1.200E+13   0.0000       0.00
!
!    22
NO+CH =  CN+OH                                     1.200E+13   0.0000       0.00
!
!    23
NO+CH =  HCN+O                                     9.600E+13   0.0000       0.00
!
!    24
NO+CH2 =  HOCN+H                                   1.390E+12   0.0000    -553.28
!
!    25
NO+CH2(S) =  HCN+OH                                9.640E+13   0.0000       0.00
!
!    26
NO+CH3 =  HCN+H2O                                  9.275E+11   0.0000    8409.31
!
!    27
NO+CH3 =  H2CN+OH                                  9.275E+11   0.0000    8409.31
!
!    28
NO+HO2 =  NO2+OH                                   2.090E+12   0.0000    -240.56
!
!    29
NO+HO2 =  HNO+O2                                   2.000E+11   0.0000     999.52
!
!    30
NO+HCCO =  HOCN+CO                                 2.000E+13   0.0000       0.00
!
!    31
NO+N => N2+O                                       4.280E+13   0.0000     790.23
!
!    32
N2+O => NO+N                                       1.810E+14   0.0000   38300.46
!
!    33
NO+NH =  N2+OH                                     3.200E+13   0.0000    6400.05
!
!    34
NO+NH =  N2O+H                                     4.162E+14  -0.4500       0.00
!
!    35
NO+NH2 =  NNH+OH                                   2.410E+15  -1.1700       0.00
!
!    36
NO+NH2 =  N2+H2O                                   5.480E+15  -1.1700       0.00
!
!    37
NO+NNH =  N2+HNO                                   5.000E+13   0.0000       0.00
!
!    38
NO+HNO =  N2O+OH                                   2.951E+05   0.0000       0.00
!
!    39
NO+NCO =  N2O+CO                                   1.390E+18  -1.7300     380.08
!
!    40
NO+M =  N+O+M                                      3.625E+15   0.0000   74648.78
 CH4/3/ H2O/6.5/ CO2/1.5/ CO/0.75/ O2/0.4/ N2/0.4/ AR/0.35/                     
!
!    41
2NO2 =  2NO+O2                                     2.000E+12   0.0000   13500.12
!
!    42
NO2+H =  NO+OH                                     3.470E+14   0.0000     739.72
!
!    43
NO2+O =  NO+O2                                     1.000E+13   0.0000     301.90
!
!    44
NO2+N =  2NO                                       8.070E+11   0.0000       0.00
!
!    45
NO2+N =  N2O+O                                     1.000E+12   0.0000       0.00
!
!    46
NO2+NH =  HNO+NO                                   1.000E+11   0.5000    2000.24
!
!    47
NO2+NH =  N2O+OH                                   9.710E+12   0.0000       0.00
!
!    48
NO2+NH2 =  N2O+H2O                                 2.030E+17  -1.7000       0.00
!
!    49
NO2+CN =  NCO+NO                                   3.000E+13   0.0000       0.00
!
!    50
NO2+M =  NO+O+M                                    3.133E+16   0.0000   32999.76
 CH4/3/ H2O/6.5/ CO2/1.5/ CO/0.75/ O2/0.4/ N2/0.4/ AR/0.35/                     
!
!    51
N2O+C =  CN+NO                                     5.120E+12   0.0000       0.00
!
!    52
N2O+H =  N2+OH                                     4.370E+14   0.0000    9499.64
!
!    53
N2O+O =  N2+O2                                     1.000E+14   0.0000   14100.31
!
!    54
N2O+O =  2NO                                       6.920E+13   0.0000   13400.29
!
!    55
N2O+OH =  N2+HO2                                   6.310E+11   0.0000    5000.00
!
!    56
N2O+N =  N2+NO                                     1.000E+13   0.0000   10000.00
!
!    57
N2O+NH =  HNO+N2                                   2.000E+12   0.0000    2999.76
!
!    58
N2O+CN =  NCO+N2                                   1.000E+13   0.0000       0.00
!
!    59
N2O+M =  N2+O+M                                    2.857E+15   0.0000   30190.04
 CH4/3/ H2O/6.5/ CO2/1.5/ CO/0.75/ O2/0.4/ N2/0.4/ AR/0.35/                     
!
!    60
NH3+H =  NH2+H2                                    5.420E+05   2.4000    4990.38
!
!    61
NH3+O => NH2+OH                                    9.640E+12   0.0000    3669.71
!
!    62
NH3+OH =  NH2+H2O                                  3.160E+12   0.0000    1010.34
!
!    63
NH3+HO2 =  NH2+H2O2                                2.510E+12   0.0000   12000.24
!
!    64
NH3+NH2 =  N2H3+H2                                 7.940E+11   0.5000   10850.37
!
!    65
NH3(+M) =  NH2+H(+M)                               8.300E+15   0.0000   55169.59
 CH4/3/ H2O/6.5/ CO2/1.5/ CO/0.75/ O2/0.4/ N2/0.4/ AR/0.35/                     
    LOW /  1.274E+16   0.00   41562.42 /
    TROE /     0.4200   4581.00    102.00 /
!
!    66
NH3+M =  NH+H2+M                                   1.803E+15   0.0000   47001.44
 CH4/3/ H2O/6.5/ CO2/1.5/ CO/0.75/ O2/0.4/ N2/0.4/ AR/0.35/                     
!
!    67
N2H2+H =  NNH+H2                                   1.000E+13   0.0000     500.36
!
!    68
N2H2+O =  NH2+NO                                   1.000E+13   0.0000       0.00
!
!    69
N2H2+O =  NNH+OH                                   1.000E+11   0.5000       0.00
!
!    70
N2H2+OH =  NNH+H2O                                 1.000E+13   0.0000    1000.00
!
!    71
N2H2+NH =  NNH+NH2                                 1.000E+13   0.0000     500.36
!
!    72
N2H2+NH2 =  NH+N2H3                                1.000E+11   0.5000   16995.43
!
!    73
N2H2+NH2 =  NH3+NNH                                1.000E+13   0.0000    2000.24
!
!    74
N2H2+M =  NNH+H+M                                  2.500E+16   0.0000   24993.99
 CH4/3/ H2O/6.5/ CO2/1.5/ CO/0.75/ O2/0.4/ N2/0.4/ AR/0.35/                     
!
!    75
N2H2+M =  2NH+M                                    7.906E+16   0.0000   50000.00
 CH4/3/ H2O/6.5/ CO2/1.5/ CO/0.75/ O2/0.4/ N2/0.4/ AR/0.35/                     
!
!    76
C2N2+O =  NCO+CN                                   1.290E+14   0.0000    7130.14
!
!    77
C2N2+OH =  HOCN+CN                                 1.870E+11   0.0000    1447.80
!
!    78
HCN+O =  NCO+H                                     8.450E+05   2.1000    3075.54
!
!    79
HCN+O =  NH+CO                                     3.190E+05   2.1000    3075.54
!
!    80
HCN+O =  CN+OH                                     2.220E+05   2.1000    3075.54
!
!    81
HCN+OH =  CN+H2O                                   9.030E+12   0.0000    5400.53
!
!    82
HCN+OH =  HOCN+H                                   5.850E+04   2.4000    6290.59
!
!    83
HCN+OH =  HNCO+H                                   1.980E-03   4.0000     502.77
!
!    84
HCN+CN =  C2N2+H                                   3.800E+07   1.5700      49.31
!
!    85
HOCN+H =  H2O+CN                                   1.000E+12   0.0000       0.00
!
!    86
HOCN+H =  H2+NCO                                   1.000E+12   0.0000       0.00
!
!    87
HOCN+H =  HNCO+H                                   1.000E+13   0.0000       0.00
!
!    88
HNCO+H =  NCO+H2                                   2.050E+14  -0.2700   10190.04
!
!    89
HNCO+H =  NH2+CO                                   1.100E+14   0.0000    6398.85
!
!    90
HNCO+O =  NH+CO2                                   2.000E+13   0.0000    6550.40
!
!    91
HNCO+O =  HNO+CO                                   1.900E+12   0.0000    5184.03
!
!    92
HNCO+O =  OH+NCO                                   2.000E+14   0.0000   11599.71
!
!    93
HNCO+OH =  NCO+H2O                                 1.990E+12   0.0000    2788.07
!
!    94
HNCO+OH =  NH2+CO2                                 6.620E+11   0.0000    2788.07
!
!    95
HNCO+HO2 =  NCO+H2O2                               3.000E+13   0.0000   14594.66
!
!    96
HNCO+N =  NH+NCO                                   3.980E+13   0.0000   17999.76
!
!    97
HNCO+NH =  NH2+NCO                                 3.000E+13   0.0000   11926.87
!
!    98
HNCO+NH2 =  NH3+NCO                                1.000E+12   0.0000    3500.12
!
!    99
HNCO+M =  NH+CO+M                                  2.403E+16   0.0000   42641.33
 CH4/3/ H2O/6.5/ CO2/1.5/ CO/0.75/ O2/0.4/ N2/0.4/ AR/0.35/                     
!
!   100
HNCO+M =  H+NCO+M                                  2.857E+17   0.0000   56402.45
 CH4/3/ H2O/6.5/ CO2/1.5/ CO/0.75/ O2/0.4/ N2/0.4/ AR/0.35/                     
!
!   101
H+NH =  N+H2                                       1.020E+13   0.0000       0.00
!
!   102
H+NH2 =  NH+H2                                     6.020E+12   0.0000       0.00
!
!   103
H+NNH =  N2+H2                                     3.980E+13   0.0000    1499.88
!
!   104
H+N2H3 =  2NH2                                     1.580E+12   0.0000       0.00
!
!   105
H+N2H3 =  NH+NH3                                   1.000E+11   0.0000       0.00
!
!   106
H+N2H3 =  N2H2+H2                                  1.000E+12   0.0000    1000.00
!
!   107
H+HNO =  H2+NO                                     1.260E+13   0.0000    2000.24
!
!   108
H+NCO =  NH+CO                                     5.240E+13   0.0000       0.00
!
!   109
CH+N =  CN+H                                       1.260E+13   0.0000       0.00
!
!   110
CH+NH =  HCN+H                                     5.000E+13   0.0000       0.00
!
!   111
CH+NH2 =  HCN+2H                                   3.000E+13   0.0000       0.00
!
!   112
CH2+N =  HCN+H                                     5.000E+13   0.0000       0.00
!
!   113
CH2+NH =  HCN+2H                                   3.000E+13   0.0000       0.00
!
!   114
CH3+N =  H2CN+H                                    2.590E+14   0.0000     419.77
!
!   115
C2H3+N =  HCN+CH2                                  2.000E+13   0.0000       0.00
!
!   116
H2CCCH+N =  HCN+C2H2                               1.000E+13   0.0000       0.00
!
!   117
O+NH =  N+OH                                       3.720E+13   0.0000       0.00
!
!   118
O+NH =  NO+H                                       5.500E+13   0.0000       0.00
!
!   119
O+NH2 =  NH+OH                                     6.900E+11   0.3500    -101.03
!
!   120
O+NH2 =  HNO+H                                     8.930E+14  -0.4890     163.58
!
!   121
O+NNH =  N2+OH                                     1.000E+13   0.0000    2500.60
!
!   122
O+NNH =  N2O+H                                     1.000E+13   0.0000    1499.88
!
!   123
O+NNH =  NH+NO                                     1.650E+14  -0.2300    -509.98
!
!   124
O+HNO =  OH+NO                                     5.010E+11   0.5000     999.52
!
!   125
O+CN =  CO+N                                       1.020E+13   0.0000       0.00
!
!   126
O+NCO =  NO+CO                                     3.162E+13   0.0000       0.00
!
!   127
OH+NH =  HNO+H                                     1.000E+12   0.5000    1000.00
!
!   128
OH+NH =  N+H2O                                     5.012E+11   0.5000    1000.00
!
!   129
OH+NH2 => O+NH3                                    1.990E+10   0.4050     250.18
!
!   130
OH+NH2 =  NH+H2O                                   5.010E+11   0.5000    1000.00
!
!   131
OH+NNH =  N2+H2O                                   3.160E+13   0.0000       0.00
!
!   132
OH+HNO =  NO+H2O                                   1.080E+13   0.0000       0.00
!
!   133
OH+CN =  NCO+H                                     6.023E+13   0.0000       0.00
!
!   134
OH+NCO =  NO+HCO                                   5.000E+12   0.0000    7548.71
!
!   135
OH+NCO =  NO+CO+H                                  1.000E+13   0.0000       0.00
!
!   136
HO2+NH2 =  HNO+H2O                                 1.570E+13   0.0000       0.00
!
!   137
HCCO+N =  HCN+CO                                   5.000E+13   0.0000       0.00
!
!   138
2N+M =  N2+M                                       6.525E+15   0.0000       0.00
 CH4/3/ H2O/6.5/ CO2/1.5/ CO/0.75/ O2/0.4/ N2/0.4/ AR/0.35/                     
!
!   139
N+NH =  N2+H                                       6.310E+11   0.5000       0.00
!
!   140
N+NH2 =  N2+2H                                     6.926E+13   0.0000       0.00
!
!   141
N+NNH =  NH+N2                                     3.160E+13   0.0000    1000.00
!
!   142
N+CN => C+N2                                       1.810E+14   0.0000       0.00
!
!   143
C+N2 => N+CN                                       5.240E+13   0.0000   22600.43
!
!   144
N+H2CN =  N2+CH2                                   2.000E+13   0.0000       0.00
!
!   145
N+NCO =  NO+CN                                     2.770E+18  -0.9900    8690.16
!
!   146
N+NCO =  N2+CO                                     1.990E+13   0.0000       0.00
!
!   147
2NH =  N2+2H                                       5.130E+13   0.0000       0.00
!
!   148
NH+NH2 =  N2H2+H                                   1.510E+15  -0.5000       0.00
!
!   149
NH+NNH =  N2+NH2                                   2.000E+11   0.5000     999.52
!
!   150
NH+M =  N+H+M                                      7.571E+14   0.0000   37999.76
 CH4/3/ H2O/6.5/ CO2/1.5/ CO/0.75/ O2/0.4/ N2/0.4/ AR/0.35/                     
!
!   151
2NH2 =  N2H2+H2                                    3.980E+13   0.0000    5999.52
!
!   152
2NH2 =  NH3+NH                                     5.000E+13   0.0000    5032.48
!
!   153
NH2+M =  NH+H+M                                    7.906E+23  -2.0000   45994.71
 CH4/3/ H2O/6.5/ CO2/1.5/ CO/0.75/ O2/0.4/ N2/0.4/ AR/0.35/                     
!
!   154
NH2+NNH =  N2+NH3                                  1.000E+13   0.0000       0.00
!
!   155
NH2+HNO =  NH3+NO                                  5.010E+11   0.5000     500.36
!
!   156
NNH =  N2+H                                        3.000E+08   0.0000       0.00
DUPLICATE
!
!   157
NNH+M =  N2+H+M                                    2.500E+13   0.5000    1539.57
DUPLICATE
 CH4/3/ H2O/6.5/ CO2/1.5/ CO/0.75/ O2/0.4/ N2/0.4/ AR/0.35/                     
!
!   158